14bus_VLN_Node.Txt

LINE-GROUND and LINE-LINE VOLTAGES BY BUS & NODE

Bus       Node    VLN (kV)   Angle      pu     Base kV    Node-Node   VLL (kV)  Angle      pu

SOURCEBUS 1       42.169 /_   -0.1    1.0585    69.000        1-2     73.039 /_   29.9    1.0585
   -      2       42.169 /_ -120.1    1.0585    69.000        2-3     73.039 /_  -90.1    1.0585
   -      3       42.169 /_  119.9    1.0585    69.000        3-1     73.039 /_  149.9    1.0585
2 ....... 1       36.879 /_   -8.0   0.92573    69.000        1-2     63.876 /_   22.0   0.92573
   -      2       36.879 /_ -128.0   0.92573    69.000        2-3     63.876 /_  -98.0   0.92573
   -      3       36.879 /_  112.0   0.92573    69.000        3-1     63.876 /_  142.0   0.92573
5 ....... 1       34.472 /_  -14.1   0.86532    69.000        1-2     59.707 /_   15.9   0.86532
   -      2       34.472 /_ -134.1   0.86532    69.000        2-3     59.707 /_ -104.1   0.86532
   -      3       34.472 /_  105.9   0.86532    69.000        3-1     59.707 /_  135.9   0.86532
7 ....... 1       6.8744 /_  -22.8   0.86281    13.800        1-2     11.907 /_    7.2   0.86281
   -      2       6.8744 /_ -142.8   0.86281    13.800        2-3     11.907 /_ -112.8   0.86281
   -      3       6.8744 /_   97.2   0.86281    13.800        3-1     11.907 /_  127.2   0.86281
9 ....... 1       6.5778 /_  -25.5   0.82559    13.800        1-2     11.393 /_    4.5   0.82559
   -      2       6.5778 /_ -145.5   0.82559    13.800        2-3     11.393 /_ -115.5   0.82559
   -      3       6.5778 /_   94.5   0.82559    13.800        3-1     11.393 /_  124.5   0.82559
3 ....... 1       31.672 /_  -21.8   0.79503    69.000        1-2     54.857 /_    8.2   0.79503
   -      2       31.672 /_ -141.8   0.79503    69.000        2-3     54.857 /_ -111.8   0.79503
   -      3       31.672 /_   98.2   0.79503    69.000        3-1     54.857 /_  128.2   0.79503
4 ....... 1       33.583 /_  -16.9   0.84302    69.000        1-2     58.168 /_   13.1   0.84302
   -      2       33.583 /_ -136.9   0.84302    69.000        2-3     58.168 /_ -106.9   0.84302
   -      3       33.583 /_  103.1   0.84302    69.000        3-1     58.168 /_  133.1   0.84302
6 ....... 1       6.9572 /_  -24.9   0.87321    13.800        1-2      12.05 /_    5.1   0.87321
   -      2       6.9572 /_ -144.9   0.87321    13.800        2-3      12.05 /_ -114.9   0.87321
   -      3       6.9572 /_   95.1   0.87321    13.800        3-1      12.05 /_  125.1   0.87321
12 ...... 1       6.7332 /_  -26.7   0.84509    13.800        1-2     11.662 /_    3.3   0.84509
   -      2       6.7332 /_ -146.7   0.84509    13.800        2-3     11.662 /_ -116.7   0.84509
   -      3       6.7332 /_   93.3   0.84509    13.800        3-1     11.662 /_  123.3   0.84509
13 ...... 1       6.6523 /_  -26.7   0.83494    13.800        1-2     11.522 /_    3.3   0.83494
   -      2       6.6523 /_ -146.7   0.83494    13.800        2-3     11.522 /_ -116.7   0.83494
   -      3       6.6523 /_   93.3   0.83494    13.800        3-1     11.522 /_  123.3   0.83494
11 ...... 1       6.7325 /_  -25.5     0.845    13.800        1-2     11.661 /_    4.5     0.845
   -      2       6.7325 /_ -145.5     0.845    13.800        2-3     11.661 /_ -115.5     0.845
   -      3       6.7325 /_   94.5     0.845    13.800        3-1     11.661 /_  124.5     0.845
10 ...... 1       6.6068 /_  -25.6   0.82923    13.800        1-2     11.443 /_    4.4   0.82923
   -      2       6.6068 /_ -145.6   0.82923    13.800        2-3     11.443 /_ -115.6   0.82923
   -      3       6.6068 /_   94.4   0.82923    13.800        3-1     11.443 /_  124.4   0.82923
14 ...... 1       6.3492 /_  -28.3   0.79689    13.800        1-2     10.997 /_    1.7   0.79689
   -      2       6.3492 /_ -148.3   0.79689    13.800        2-3     10.997 /_ -118.3   0.79689
   -      3       6.3492 /_   91.7   0.79689    13.800        3-1     10.997 /_  121.7   0.79689
8 ....... 1       9.2608 /_  -22.8   0.89112    18.000        1-2      16.04 /_    7.2   0.89112
   -      2       9.2608 /_ -142.8   0.89112    18.000        2-3      16.04 /_ -112.8   0.89112
   -      3       9.2608 /_   97.2   0.89112    18.000        3-1      16.04 /_  127.2   0.89112
